Output_case1_3p/output_current_1440.csv
# Output_case1_3p\output_current_1440.csv run at 2000-01-02 00:00:00 EST on 907 links
link_name,currA_mag,currA_angle,currB_mag,currB_angle,currC_mag,currC_angle
Source_Impedance,0.439431,-0.317778,0.439431,3.871012,0.439431,1.776617
TR1,0.439431,-0.317778,0.439431,3.871012,0.439431,1.776617
LINE1,11.619561,-0.841376,11.619561,3.347414,11.619561,1.253019
LINE2,11.619561,-0.841376,11.619561,3.347414,11.619561,1.253019
LINE3,11.619561,-0.841376,11.619561,3.347414,11.619561,1.253019
LINE4,11.619561,-0.841376,11.619561,3.347414,11.619561,1.253019
LINE5,11.619561,-0.841376,11.619561,3.347414,11.619561,1.253019
LINE6,11.619561,-0.841376,11.619561,3.347414,11.619561,1.253019
LINE7,11.619561,-0.841376,11.619561,3.347414,11.619561,1.253019
LINE8,11.619561,-0.841376,11.619561,3.347414,11.619561,1.253019
LINE9,11.619561,-0.841376,11.619561,3.347414,11.619561,1.253019
LINE10,11.619561,-0.841376,11.619561,3.347414,11.619561,1.253019
LINE11,11.619561,-0.841376,11.619561,3.347414,11.619561,1.253019
LINE12,11.619561,-0.841376,11.619561,3.347414,11.619561,1.253019
LINE13,11.619561,-0.841376,11.619561,3.347414,11.619561,1.253019
LINE14,11.619561,-0.841376,11.619561,3.347414,11.619561,1.253019
LINE15,0.000000,0.160416,0.000000,1.545864,0.000000,1.520870
LINE16,11.619561,-0.841376,11.619561,3.347414,11.619561,1.253019
LINE17,0.000000,0.220047,0.000000,0.957862,0.000000,1.522269
LINE18,11.619561,-0.841376,11.619561,3.347414,11.619561,1.253019
LINE19,0.000000,0.333839,0.000000,0.760466,0.000000,1.520967
LINE20,11.619561,-0.841376,11.619561,3.347414,11.619561,1.253019
LINE21,0.000000,0.220047,0.000000,0.760466,0.000000,1.553799
LINE22,11.619561,-0.841376,11.619561,3.347414,11.619561,1.253019
LINE23,0.000000,-0.024932,0.000000,1.082217,0.000000,1.561814
LINE24,11.619561,-0.841376,11.619561,3.347414,11.619561,1.253019
LINE25,0.000000,-0.269911,0.000000,3.116661,0.000000,1.568200
LINE26,0.479936,-0.841565,0.479936,3.347225,0.479936,1.252830
LINE27,11.139625,-0.841368,11.139625,3.347422,11.139625,1.253027
LINE28,0.000000,-0.269911,0.000000,2.794910,0.000000,1.597820
LINE29,0.045111,-0.841568,0.045111,3.347222,0.045111,1.252827
LINE30,0.434825,-0.841565,0.434825,3.347225,0.434825,1.252830
LINE31,11.139625,-0.841368,11.139625,3.347422,11.139625,1.253027
LINE32,0.000000,-0.269911,0.000000,3.199802,0.000000,1.593369
LINE33,0.045111,-0.841568,0.045111,3.347222,0.045111,1.252827
LINE34,0.434825,-0.841565,0.434825,3.347225,0.434825,1.252830
LINE35,0.141632,-0.841530,0.141632,3.347260,0.141632,1.252865
LINE36,10.997993,-0.841366,10.997993,3.347424,10.997993,1.253029
LINE37,0.000000,-0.238993,0.000000,3.033520,0.000000,1.590933
LINE38,0.434825,-0.841565,0.434825,3.347225,0.434825,1.252830
LINE39,0.070190,-0.841530,0.070190,3.347260,0.070190,1.252865
LINE40,0.071443,-0.841530,0.071443,3.347260,0.071443,1.252865
LINE41,10.997993,-0.841366,10.997993,3.347424,10.997993,1.253029
LINE42,0.000000,1.791797,0.000000,1.705409,0.000000,3.834335
LINE43,0.000000,-0.222327,0.000000,2.653013,0.000000,1.580844
LINE44,0.434825,-0.841565,0.434825,3.347225,0.434825,1.252830
LINE45,0.070190,-0.841530,0.070190,3.347260,0.070190,1.252865
LINE46,0.071443,-0.841530,0.071443,3.347260,0.071443,1.252865
LINE47,10.997993,-0.841366,10.997993,3.347424,10.997993,1.253029
LINE48,0.000000,1.854666,0.000000,1.548107,0.000000,3.713528
LINE49,0.000000,0.140217,0.000000,0.438716,0.000000,3.116661
LINE50,0.434825,-0.841565,0.434825,3.347225,0.434825,1.252830
LINE51,0.070190,-0.841530,0.070190,3.347260,0.070190,1.252865
LINE52,10.997993,-0.841366,10.997993,3.347424,10.997993,1.253029
LINE53,0.000000,0.665319,0.000000,4.435390,0.000000,4.360173
LINE54,0.000000,2.119802,0.000000,1.930818,0.000000,4.172806
LINE55,0.000000,-0.024932,0.000000,0.957862,0.000000,1.685094
LINE56,0.434825,-0.841565,0.434825,3.347225,0.434825,1.252830
LINE57,0.070190,-0.841530,0.070190,3.347260,0.070190,1.252865
LINE58,10.997993,-0.841366,10.997993,3.347424,10.997993,1.253029
LINE59,0.000000,1.275158,0.000000,-0.868368,0.000000,-1.543150
LINE60,0.000000,2.010021,0.000000,2.121893,0.000000,4.221667
LINE61,0.000000,0.296819,0.000000,0.438716,0.000000,1.599037
LINE62,0.434825,-0.841565,0.434825,3.347225,0.434825,1.252830
LINE63,0.070190,-0.841530,0.070190,3.347260,0.070190,1.252865
LINE64,10.348455,-0.841361,10.348455,3.347430,10.348455,1.253034
LINE65,0.649538,-0.841457,0.649538,3.347333,0.649538,1.252938
LINE66,0.000000,0.406365,0.000000,4.118584,0.000000,4.321259
LINE67,0.000000,1.739656,0.000000,2.931395,0.000000,4.336237
LINE68,0.000000,0.438716,0.000000,0.220047,0.000000,1.568322
LINE69,0.434825,-0.841565,0.434825,3.347225,0.434825,1.252830
LINE70,0.070190,-0.841530,0.070190,3.347260,0.070190,1.252865
LINE71,10.348455,-0.841361,10.348455,3.347430,10.348455,1.253034
LINE72,0.061442,-0.841459,0.061442,3.347331,0.061442,1.252936
LINE73,0.588096,-0.841457,0.588096,3.347334,0.588096,1.252939
LINE74,0.000000,0.259811,0.000000,3.899306,0.000000,0.163529
LINE75,0.000000,1.942265,0.000000,2.691896,0.000000,4.346459
LINE76,0.000000,0.618569,0.000000,0.165056,0.000000,1.589599
LINE77,0.070190,-0.841530,0.070190,3.347260,0.070190,1.252865
LINE78,10.348455,-0.841361,10.348455,3.347430,10.348455,1.253034
LINE79,0.000000,-0.362440,0.000000,3.943532,0.000000,0.701867
LINE80,0.000000,1.661837,0.000000,2.682735,0.000000,4.352497
LINE81,0.000000,0.401696,0.000000,0.206159,0.000000,1.579153
LINE82,0.070190,-0.841530,0.070190,3.347260,0.070190,1.252865
LINE83,10.348455,-0.841361,10.348455,3.347430,10.348455,1.253034
LINE84,0.000000,3.290162,0.000000,0.685483,0.000000,0.722337
LINE85,0.000000,1.692986,0.000000,2.668234,0.000000,4.352602
LINE86,0.000000,0.253368,0.000000,0.387479,0.000000,1.579689
LINE87,10.348455,-0.841361,10.348455,3.347430,10.348455,1.253034
LINE88,0.000000,-0.201631,0.000000,-0.201631,0.000000,2.997100
LINE89,0.000000,1.588637,0.000000,2.778570,0.000000,4.350934
LINE90,0.000000,0.220047,0.000000,0.220047,0.000000,1.569135
LINE91,10.348455,-0.841361,10.348455,3.347430,10.348455,1.253034
LINE92,0.000000,2.335714,0.000000,1.490809,0.000000,4.422933
LINE93,0.000000,1.545864,0.000000,-0.488580,0.000000,3.116661
LINE94,10.348455,-0.841361,10.348455,3.347430,10.348455,1.253034
LINE95,0.000000,2.163718,0.000000,0.214362,0.000000,4.439051
LINE96,0.000000,1.545864,0.000000,0.438716,0.000000,4.694781
LINE97,10.348455,-0.841361,10.348455,3.347430,10.348455,1.253034
LINE98,0.000000,2.435866,0.000000,-0.002068,0.000000,4.086487
LINE99,0.000000,3.361639,0.000000,0.438716,0.000000,-1.568879
LINE100,10.348455,-0.841361,10.348455,3.347430,10.348455,1.253034
LINE101,0.000000,1.829245,0.000000,0.762960,0.000000,3.777899
LINE102,0.000000,0.000000,0.000000,0.000000,0.000000,3.116661
LINE103,0.583215,-0.841424,0.583215,3.347367,0.583215,1.252971
LINE104,9.765240,-0.841357,9.765240,3.347433,9.765240,1.253038
LINE105,0.000000,1.910531,0.000000,0.960817,0.000000,3.771783
LINE106,0.583215,-0.841424,0.583215,3.347367,0.583215,1.252971
LINE107,9.765240,-0.841357,9.765240,3.347433,9.765240,1.253038
LINE108,0.000000,2.040601,0.000000,0.769453,0.000000,4.056868
LINE109,0.583215,-0.841424,0.583215,3.347367,0.583215,1.252971
LINE110,9.765240,-0.841357,9.765240,3.347433,9.765240,1.253038
LINE111,0.000000,2.039544,0.000000,0.806338,0.000000,4.017093
LINE112,0.583215,-0.841424,0.583215,3.347367,0.583215,1.252971
LINE113,9.765240,-0.841357,9.765240,3.347433,9.765240,1.253038
LINE114,0.000000,2.038061,0.000000,0.815515,0.000000,4.021705
LINE115,0.583215,-0.841424,0.583215,3.347367,0.583215,1.252971
LINE116,2.253118,-0.841388,2.253118,3.347402,2.253118,1.253007
LINE117,7.512122,-0.841348,7.512122,3.347443,7.512122,1.253048
LINE118,0.000000,2.051330,0.000000,0.810064,0.000000,4.073286
LINE119,0.583215,-0.841424,0.583215,3.347367,0.583215,1.252971
LINE120,0.000000,3.580308,0.000000,1.545864,0.000000,1.594694
LINE121,2.253118,-0.841388,2.253118,3.347402,2.253118,1.253007
LINE122,7.512122,-0.841348,7.512122,3.347443,7.512122,1.253048
LINE123,0.000000,1.986927,0.000000,0.822688,0.000000,4.131494
LINE124,0.583215,-0.841424,0.583215,3.347367,0.583215,1.252971
LINE125,0.000000,3.580308,0.000000,0.760466,0.000000,1.594085
LINE126,2.253118,-0.841388,2.253118,3.347402,2.253118,1.253007
LINE127,7.512122,-0.841348,7.512122,3.347443,7.512122,1.253048
LINE128,0.000000,1.947574,0.000000,0.809883,0.000000,4.114133
LINE129,0.583215,-0.841424,0.583215,3.347367,0.583215,1.252971
LINE130,0.000000,3.361639,0.000000,0.438716,0.000000,1.589619
LINE131,0.063974,-0.841401,0.063974,3.347389,0.063974,1.252994
LINE132,2.189144,-0.841387,2.189144,3.347403,2.189144,1.253008
LINE133,7.512122,-0.841348,7.512122,3.347443,7.512122,1.253048
LINE134,0.000000,1.893994,0.000000,0.898446,0.000000,4.092163
LINE135,0.583215,-0.841424,0.583215,3.347367,0.583215,1.252971
LINE136,0.000000,3.580308,0.000000,1.545864,0.000000,1.589781
LINE137,0.063974,-0.841401,0.063974,3.347389,0.063974,1.252994
LINE138,2.189144,-0.841387,2.189144,3.347403,2.189144,1.253008
LINE139,7.512122,-0.841348,7.512122,3.347443,7.512122,1.253048
LINE140,0.000000,1.914742,0.000000,0.875125,0.000000,4.101510
LINE141,0.583215,-0.841424,0.583215,3.347367,0.583215,1.252971
LINE142,0.000000,3.497167,0.000000,2.653013,0.000000,1.588969
LINE143,0.063974,-0.841401,0.063974,3.347389,0.063974,1.252994
LINE144,2.189144,-0.841387,2.189144,3.347403,2.189144,1.253008
LINE145,7.512122,-0.841348,7.512122,3.347443,7.512122,1.253048
LINE146,0.000000,1.832148,0.000000,0.664742,0.000000,4.209084
LINE147,0.583215,-0.841424,0.583215,3.347367,0.583215,1.252971
LINE148,0.000000,3.580308,0.000000,2.331263,0.000000,1.600335
LINE149,0.063974,-0.841401,0.063974,3.347389,0.063974,1.252994
LINE150,0.825450,-0.841397,0.825450,3.347393,0.825450,1.252998
LINE151,1.363694,-0.841381,1.363694,3.347409,1.363694,1.253014
LINE152,7.512122,-0.841348,7.512122,3.347443,7.512122,1.253048
LINE153,0.000000,1.959875,0.000000,0.824931,0.000000,3.978539
LINE154,0.583215,-0.841424,0.583215,3.347367,0.583215,1.252971
LINE155,0.000000,-1.007726,0.000000,2.794910,0.000000,1.591122
LINE156,0.063974,-0.841401,0.063974,3.347389,0.063974,1.252994
LINE157,0.825450,-0.841397,0.825450,3.347393,0.825450,1.252998
LINE158,1.363694,-0.841381,1.363694,3.347409,1.363694,1.253014
LINE159,7.512122,-0.841348,7.512122,3.347443,7.512122,1.253048
LINE160,0.000000,2.019977,0.000000,3.206135,0.000000,2.527694
LINE161,0.263389,-0.841421,0.263389,3.347369,0.263389,1.252974
LINE162,0.319826,-0.841426,0.319826,3.347365,0.319826,1.252970
LINE163,0.000000,-0.488580,0.000000,3.116661,0.000000,1.592462
LINE164,0.063974,-0.841401,0.063974,3.347389,0.063974,1.252994
LINE165,0.825450,-0.841397,0.825450,3.347393,0.825450,1.252998
LINE166,1.363694,-0.841381,1.363694,3.347409,1.363694,1.253014
LINE167,7.512122,-0.841348,7.512122,3.347443,7.512122,1.253048
LINE168,0.000000,-1.372905,0.000000,0.174720,0.000000,1.660564
LINE169,0.263389,-0.841421,0.263389,3.347369,0.263389,1.252974
LINE170,0.319826,-0.841426,0.319826,3.347365,0.319826,1.252970
LINE171,0.000000,3.902059,0.000000,4.687457,0.000000,1.550991
LINE172,0.063974,-0.841401,0.063974,3.347389,0.063974,1.252994
LINE173,0.000000,1.858899,0.000000,3.469278,0.000000,0.690097
LINE174,0.825450,-0.841397,0.825450,3.347393,0.825450,1.252998
LINE175,1.363694,-0.841381,1.363694,3.347409,1.363694,1.253014
LINE176,7.512122,-0.841348,7.512122,3.347443,7.512122,1.253048
LINE177,0.263389,-0.841421,0.263389,3.347369,0.263389,1.252974
LINE178,0.186879,-0.841426,0.186879,3.347364,0.186879,1.252969
LINE179,0.132947,-0.841425,0.132947,3.347365,0.132947,1.252970
LINE180,0.000000,3.438411,0.000000,-0.810330,0.000000,1.563319
LINE181,0.063974,-0.841401,0.063974,3.347389,0.063974,1.252994
LINE182,0.000000,1.803677,0.000000,3.470023,0.000000,0.667636
LINE183,0.825450,-0.841397,0.825450,3.347393,0.825450,1.252998
LINE184,1.363694,-0.841381,1.363694,3.347409,1.363694,1.253014
LINE185,7.512122,-0.841348,7.512122,3.347443,7.512122,1.253048
LINE186,0.186879,-0.841426,0.186879,3.347364,0.186879,1.252969
LINE187,0.132947,-0.841425,0.132947,3.347365,0.132947,1.252970
LINE188,0.000000,3.116661,0.000000,-0.024932,0.000000,-0.024932
LINE189,0.063974,-0.841401,0.063974,3.347389,0.063974,1.252994
LINE190,0.000000,1.721627,0.000000,-0.930093,0.000000,4.511167
LINE191,0.000000,1.763082,0.000000,3.647523,0.000000,0.849736
LINE192,0.825450,-0.841397,0.825450,3.347393,0.825450,1.252998
LINE193,1.363694,-0.841381,1.363694,3.347409,1.363694,1.253014
LINE194,7.512122,-0.841348,7.512122,3.347443,7.512122,1.253048
LINE195,0.186879,-0.841426,0.186879,3.347364,0.186879,1.252969
LINE196,0.066474,-0.841425,0.066474,3.347365,0.066474,1.252970
LINE197,0.066474,-0.841425,0.066474,3.347365,0.066474,1.252970
LINE198,0.000000,2.653013,0.000000,0.296819,0.000000,4.696246
LINE199,0.063974,-0.841401,0.063974,3.347389,0.063974,1.252994
LINE200,0.000000,1.515605,0.000000,0.146596,0.000000,3.989401
LINE201,0.000000,2.130435,0.000000,3.403647,0.000000,0.264391
LINE202,0.825450,-0.841397,0.825450,3.347393,0.825450,1.252998
LINE203,1.363694,-0.841381,1.363694,3.347409,1.363694,1.253014
LINE204,7.512122,-0.841348,7.512122,3.347443,7.512122,1.253048
LINE205,0.065219,-0.841426,0.065219,3.347364,0.065219,1.252969
LINE206,0.121659,-0.841426,0.121659,3.347365,0.121659,1.252969
LINE207,0.066474,-0.841425,0.066474,3.347365,0.066474,1.252970
LINE208,0.066474,-0.841425,0.066474,3.347365,0.066474,1.252970
LINE209,0.000000,2.871682,0.000000,0.438716,0.000000,-1.566928
LINE210,0.063974,-0.841401,0.063974,3.347389,0.063974,1.252994
LINE211,0.000000,1.895810,0.000000,3.477784,0.000000,0.349505
LINE212,0.825450,-0.841397,0.825450,3.347393,0.825450,1.252998
LINE213,1.363694,-0.841381,1.363694,3.347409,1.363694,1.253014
LINE214,7.512122,-0.841348,7.512122,3.347443,7.512122,1.253048
LINE215,0.065219,-0.841426,0.065219,3.347364,0.065219,1.252969
LINE216,0.121659,-0.841426,0.121659,3.347365,0.121659,1.252969
LINE217,0.066474,-0.841425,0.066474,3.347365,0.066474,1.252970
LINE218,0.000000,0.000000,0.000000,0.000000,0.000000,-0.024932
LINE219,0.063974,-0.841401,0.063974,3.347389,0.063974,1.252994
LINE220,0.000000,2.206045,0.000000,3.248393,0.000000,0.821333
LINE221,0.825450,-0.841397,0.825450,3.347393,0.825450,1.252998
LINE222,1.363694,-0.841381,1.363694,3.347409,1.363694,1.253014
LINE223,7.512122,-0.841348,7.512122,3.347443,7.512122,1.253048
LINE224,0.065219,-0.841426,0.065219,3.347364,0.065219,1.252969
LINE225,0.121659,-0.841426,0.121659,3.347365,0.121659,1.252969
LINE226,0.066474,-0.841425,0.066474,3.347365,0.066474,1.252970
LINE227,0.063974,-0.841401,0.063974,3.347389,0.063974,1.252994
LINE228,0.000000,3.029977,0.000000,3.566464,0.000000,0.632737
LINE229,0.825450,-0.841397,0.825450,3.347393,0.825450,1.252998
LINE230,1.363694,-0.841381,1.363694,3.347409,1.363694,1.253014
LINE231,7.512122,-0.841348,7.512122,3.347443,7.512122,1.253048
LINE232,0.121659,-0.841426,0.121659,3.347365,0.121659,1.252969
LINE233,0.000000,4.129791,0.000000,0.670243,0.000000,-1.259366
LINE234,0.066474,-0.841425,0.066474,3.347365,0.066474,1.252970
LINE235,0.063974,-0.841401,0.063974,3.347389,0.063974,1.252994
LINE236,0.000000,-0.215795,0.000000,3.791756,0.000000,0.753485
LINE237,0.825450,-0.841397,0.825450,3.347393,0.825450,1.252998
LINE238,1.363694,-0.841381,1.363694,3.347409,1.363694,1.253014
LINE239,7.512122,-0.841348,7.512122,3.347443,7.512122,1.253048
LINE240,0.121659,-0.841426,0.121659,3.347365,0.121659,1.252969
LINE241,0.066474,-0.841425,0.066474,3.347365,0.066474,1.252970
LINE242,0.063974,-0.841401,0.063974,3.347389,0.063974,1.252994
LINE243,0.000000,-1.042321,0.000000,3.813748,0.000000,0.405634
LINE244,0.825450,-0.841397,0.825450,3.347393,0.825450,1.252998
LINE245,1.363694,-0.841381,1.363694,3.347409,1.363694,1.253014
LINE246,7.512122,-0.841348,7.512122,3.347443,7.512122,1.253048
LINE247,0.060203,-0.841426,0.060203,3.347365,0.060203,1.252969
LINE248,0.061457,-0.841426,0.061457,3.347365,0.061457,1.252969
LINE249,0.066474,-0.841425,0.066474,3.347365,0.066474,1.252970
LINE250,0.063974,-0.841401,0.063974,3.347389,0.063974,1.252994
LINE251,0.000000,4.056278,0.000000,3.581483,0.000000,-0.605073
LINE252,0.825450,-0.841397,0.825450,3.347393,0.825450,1.252998
LINE253,1.363694,-0.841381,1.363694,3.347409,1.363694,1.253014
LINE254,0.194479,-0.841384,0.194479,3.347406,0.194479,1.253011
LINE255,7.317642,-0.841347,7.317642,3.347444,7.317642,1.253049
LINE256,0.066474,-0.841425,0.066474,3.347365,0.066474,1.252970
LINE257,0.063974,-0.841401,0.063974,3.347389,0.063974,1.252994
LINE258,0.000000,-0.475407,0.000000,4.264863,0.000000,-0.121841
LINE259,0.825450,-0.841397,0.825450,3.347393,0.825450,1.252998
LINE260,1.363694,-0.841381,1.363694,3.347409,1.363694,1.253014
LINE261,0.194479,-0.841384,0.194479,3.347406,0.194479,1.253011
LINE262,7.317642,-0.841347,7.317642,3.347444,7.317642,1.253049
LINE263,0.066474,-0.841425,0.066474,3.347365,0.066474,1.252970
LINE264,0.063974,-0.841401,0.063974,3.347389,0.063974,1.252994
LINE265,0.000000,-0.613588,0.000000,-1.123511,0.000000,2.341152
LINE266,0.825450,-0.841397,0.825450,3.347393,0.825450,1.252998
LINE267,1.307241,-0.841381,1.307241,3.347409,1.307241,1.253014
LINE268,0.056453,-0.841391,0.056453,3.347400,0.056453,1.253005
LINE269,0.194479,-0.841384,0.194479,3.347406,0.194479,1.253011
LINE270,0.062737,-0.841384,0.062737,3.347406,0.062737,1.253011
LINE271,7.254905,-0.841346,7.254905,3.347444,7.254905,1.253049
LINE272,0.063974,-0.841401,0.063974,3.347389,0.063974,1.252994
LINE273,0.000000,-1.485271,0.000000,-1.485271,0.000000,3.146076
LINE274,0.825450,-0.841397,0.825450,3.347393,0.825450,1.252998
LINE275,1.307241,-0.841381,1.307241,3.347409,1.307241,1.253014
LINE276,0.056453,-0.841391,0.056453,3.347400,0.056453,1.253005
LINE277,0.194479,-0.841384,0.194479,3.347406,0.194479,1.253011
LINE278,0.062737,-0.841384,0.062737,3.347406,0.062737,1.253011
LINE279,7.254905,-0.841346,7.254905,3.347444,7.254905,1.253049
LINE280,0.063974,-0.841401,0.063974,3.347389,0.063974,1.252994
LINE281,0.000000,4.551535,0.000000,3.363438,0.000000,2.257795
LINE282,0.825450,-0.841397,0.825450,3.347393,0.825450,1.252998
LINE283,0.056453,-0.841391,0.056453,3.347400,0.056453,1.253005
LINE284,0.194479,-0.841384,0.194479,3.347406,0.194479,1.253011
LINE285,0.062737,-0.841384,0.062737,3.347406,0.062737,1.253011
LINE286,2.295484,-0.841346,2.295484,3.347444,2.295484,1.253049
LINE287,4.959422,-0.841346,4.959422,3.347444,4.959422,1.253049
LINE288,0.063974,-0.841401,0.063974,3.347389,0.063974,1.252994
LINE289,0.000000,2.979698,0.000000,2.958090,0.000000,1.631537
LINE290,0.067742,-0.841400,0.067742,3.347391,0.067742,1.252996
LINE291,0.757708,-0.841397,0.757708,3.347393,0.757708,1.252998
LINE292,0.056453,-0.841391,0.056453,3.347400,0.056453,1.253005
LINE293,0.194479,-0.841384,0.194479,3.347406,0.194479,1.253011
LINE294,0.062737,-0.841384,0.062737,3.347406,0.062737,1.253011
LINE295,2.295484,-0.841346,2.295484,3.347444,2.295484,1.253049
LINE296,4.959422,-0.841346,4.959422,3.347444,4.959422,1.253049
LINE297,0.067742,-0.841400,0.067742,3.347391,0.067742,1.252996
LINE298,0.757708,-0.841397,0.757708,3.347393,0.757708,1.252998
LINE299,0.056453,-0.841390,0.056453,3.347400,0.056453,1.253005
LINE300,0.194479,-0.841384,0.194479,3.347406,0.194479,1.253011
LINE301,0.062737,-0.841384,0.062737,3.347406,0.062737,1.253011
LINE302,2.295484,-0.841346,2.295484,3.347444,2.295484,1.253049
LINE303,4.959422,-0.841346,4.959422,3.347444,4.959422,1.253049
LINE304,0.067742,-0.841400,0.067742,3.347391,0.067742,1.252996
LINE305,0.757708,-0.841397,0.757708,3.347393,0.757708,1.252998
LINE306,0.056453,-0.841390,0.056453,3.347400,0.056453,1.253005
LINE307,0.194479,-0.841384,0.194479,3.347406,0.194479,1.253011
LINE308,0.062737,-0.841384,0.062737,3.347406,0.062737,1.253011
LINE309,2.295484,-0.841346,2.295484,3.347444,2.295484,1.253049
LINE310,4.959422,-0.841346,4.959422,3.347444,4.959422,1.253049
LINE311,0.067742,-0.841400,0.067742,3.347391,0.067742,1.252996
LINE312,0.757708,-0.841397,0.757708,3.347393,0.757708,1.252998
LINE313,0.056453,-0.841390,0.056453,3.347400,0.056453,1.253005
LINE314,0.194479,-0.841384,0.194479,3.347406,0.194479,1.253011
LINE315,0.062737,-0.841384,0.062737,3.347406,0.062737,1.253011
LINE316,0.077800,-0.841377,0.077800,3.347414,0.077800,1.253019
LINE317,2.217684,-0.841345,2.217684,3.347446,2.217684,1.253050
LINE318,4.959422,-0.841346,4.959422,3.347444,4.959422,1.253049
LINE319,0.067742,-0.841400,0.067742,3.347391,0.067742,1.252996
LINE320,0.757708,-0.841397,0.757708,3.347393,0.757708,1.252998
LINE321,0.194479,-0.841384,0.194479,3.347406,0.194479,1.253011
LINE322,0.062737,-0.841384,0.062737,3.347406,0.062737,1.253011
LINE323,0.077800,-0.841377,0.077800,3.347414,0.077800,1.253019
LINE324,2.217684,-0.841345,2.217684,3.347446,2.217684,1.253050
LINE325,4.959422,-0.841346,4.959422,3.347444,4.959422,1.253049
LINE326,0.757708,-0.841397,0.757708,3.347393,0.757708,1.252998
LINE327,0.194479,-0.841384,0.194479,3.347406,0.194479,1.253011
LINE328,0.062737,-0.841384,0.062737,3.347406,0.062737,1.253011
LINE329,0.077800,-0.841377,0.077800,3.347414,0.077800,1.253019
LINE330,0.067764,-0.841370,0.067764,3.347421,0.067764,1.253026
LINE331,2.149920,-0.841344,2.149920,3.347446,2.149920,1.253051
LINE332,4.959422,-0.841346,4.959422,3.347444,4.959422,1.253049
LINE333,0.194479,-0.841384,0.194479,3.347406,0.194479,1.253011
LINE334,0.062737,-0.841384,0.062737,3.347406,0.062737,1.253011
LINE335,0.077800,-0.841377,0.077800,3.347414,0.077800,1.253019
LINE336,0.067764,-0.841370,0.067764,3.347421,0.067764,1.253026
LINE337,1.032871,-0.841348,1.032871,3.347442,1.032871,1.253047
LINE338,1.117049,-0.841340,1.117049,3.347450,1.117049,1.253055
LINE339,4.959422,-0.841346,4.959422,3.347444,4.959422,1.253049
LINE340,0.194479,-0.841384,0.194479,3.347406,0.194479,1.253011
LINE341,0.062737,-0.841384,0.062737,3.347406,0.062737,1.253011
LINE342,0.042664,-0.841377,0.042664,3.347414,0.042664,1.253018
LINE343,0.035135,-0.841377,0.035135,3.347414,0.035135,1.253019
LINE344,1.032871,-0.841348,1.032871,3.347442,1.032871,1.253047
LINE345,1.117049,-0.841340,1.117049,3.347450,1.117049,1.253055
LINE346,4.959422,-0.841346,4.959422,3.347444,4.959422,1.253049
LINE347,0.194479,-0.841384,0.194479,3.347406,0.194479,1.253011
LINE348,0.042664,-0.841377,0.042664,3.347414,0.042664,1.253018
LINE349,0.035135,-0.841377,0.035135,3.347414,0.035135,1.253019
LINE350,1.032871,-0.841348,1.032871,3.347442,1.032871,1.253047
LINE351,1.117049,-0.841340,1.117049,3.347450,1.117049,1.253055
LINE352,4.959422,-0.841346,4.959422,3.347444,4.959422,1.253049
LINE353,0.194479,-0.841384,0.194479,3.347406,0.194479,1.253011
LINE354,0.035135,-0.841377,0.035135,3.347414,0.035135,1.253019
LINE355,1.032871,-0.841348,1.032871,3.347442,1.032871,1.253047
LINE356,1.117049,-0.841340,1.117049,3.347450,1.117049,1.253055
LINE357,4.959422,-0.841346,4.959422,3.347444,4.959422,1.253049
LINE358,0.194479,-0.841384,0.194479,3.347406,0.194479,1.253011
LINE359,0.035135,-0.841377,0.035135,3.347414,0.035135,1.253019
LINE360,1.032871,-0.841348,1.032871,3.347442,1.032871,1.253047
LINE361,1.117049,-0.841340,1.117049,3.347450,1.117049,1.253055
LINE362,4.959422,-0.841346,4.959422,3.347444,4.959422,1.253049
LINE363,0.194479,-0.841384,0.194479,3.347406,0.194479,1.253011
LINE364,0.035135,-0.841377,0.035135,3.347414,0.035135,1.253019
LINE365,1.032871,-0.841348,1.032871,3.347442,1.032871,1.253047
LINE366,1.117049,-0.841340,1.117049,3.347450,1.117049,1.253055
LINE367,4.959422,-0.841346,4.959422,3.347444,4.959422,1.253049
LINE368,0.194479,-0.841384,0.194479,3.347406,0.194479,1.253011
LINE369,0.035135,-0.841377,0.035135,3.347414,0.035135,1.253019
LINE370,1.032871,-0.841348,1.032871,3.347442,1.032871,1.253047
LINE371,1.117049,-0.841340,1.117049,3.347450,1.117049,1.253055
LINE372,4.959422,-0.841346,4.959422,3.347444,4.959422,1.253049
LINE373,0.194479,-0.841384,0.194479,3.347406,0.194479,1.253011
LINE374,0.035135,-0.841377,0.035135,3.347414,0.035135,1.253019
LINE375,1.032871,-0.841348,1.032871,3.347442,1.032871,1.253047
LINE376,1.117049,-0.841340,1.117049,3.347450,1.117049,1.253055
LINE377,4.326947,-0.841344,4.326947,3.347447,4.326947,1.253052
LINE378,0.632474,-0.841366,0.632474,3.347424,0.632474,1.253029
LINE379,0.194479,-0.841384,0.194479,3.347406,0.194479,1.253011
LINE380,0.035135,-0.841377,0.035135,3.347414,0.035135,1.253019
LINE381,1.032871,-0.841348,1.032871,3.347442,1.032871,1.253047
LINE382,1.117049,-0.841340,1.117049,3.347450,1.117049,1.253055
LINE383,4.326947,-0.841344,4.326947,3.347447,4.326947,1.253052
LINE384,0.632474,-0.841366,0.632474,3.347424,0.632474,1.253029
LINE385,0.000000,3.205991,0.000000,0.113021,0.000000,4.688751
LINE386,0.194479,-0.841384,0.194479,3.347406,0.194479,1.253011
LINE387,0.035135,-0.841377,0.035135,3.347414,0.035135,1.253019
LINE388,1.032871,-0.841348,1.032871,3.347442,1.032871,1.253047
LINE389,1.117049,-0.841340,1.117049,3.347450,1.117049,1.253055
LINE390,4.326947,-0.841344,4.326947,3.347447,4.326947,1.253052
LINE391,0.632474,-0.841366,0.632474,3.347424,0.632474,1.253029
LINE392,0.000000,3.213469,0.000000,0.101979,0.000000,4.694240
LINE393,1.032871,-0.841348,1.032871,3.347442,1.032871,1.253047
LINE394,1.117049,-0.841340,1.117049,3.347450,1.117049,1.253055
LINE395,0.384005,-0.841371,0.384005,3.347419,0.384005,1.253024
LINE396,3.942943,-0.841341,3.942943,3.347449,3.942943,1.253054
LINE397,0.632474,-0.841366,0.632474,3.347424,0.632474,1.253029
LINE398,0.000000,3.219154,0.000000,0.091569,0.000000,4.676586
LINE399,1.032871,-0.841348,1.032871,3.347442,1.032871,1.253047
LINE400,1.117049,-0.841340,1.117049,3.347450,1.117049,1.253055
LINE401,0.384005,-0.841371,0.384005,3.347419,0.384005,1.253024
LINE402,3.942943,-0.841341,3.942943,3.347449,3.942943,1.253054
LINE403,0.632474,-0.841366,0.632474,3.347424,0.632474,1.253029
LINE404,0.000000,3.220289,0.000000,-0.069144,0.000000,-1.541185
LINE405,1.032871,-0.841348,1.032871,3.347442,1.032871,1.253047
LINE406,1.117049,-0.841340,1.117049,3.347450,1.117049,1.253055
LINE407,0.384005,-0.841371,0.384005,3.347419,0.384005,1.253024
LINE408,3.942943,-0.841341,3.942943,3.347449,3.942943,1.253054
LINE409,0.000000,-0.489165,0.000000,3.695756,0.000000,1.373618
LINE410,0.632474,-0.841366,0.632474,3.347424,0.632474,1.253029
LINE411,0.000000,3.053466,0.000000,0.028958,0.000000,-1.540691
LINE412,1.117049,-0.841340,1.117049,3.347450,1.117049,1.253055
LINE413,0.384005,-0.841371,0.384005,3.347419,0.384005,1.253024
LINE414,3.942943,-0.841341,3.942943,3.347449,3.942943,1.253054
LINE415,0.000000,-0.411388,0.000000,3.695222,0.000000,1.425503
LINE416,0.632474,-0.841366,0.632474,3.347424,0.632474,1.253029
LINE417,0.000000,3.220570,0.000000,0.112913,0.000000,4.699537
LINE418,1.117049,-0.841340,1.117049,3.347450,1.117049,1.253055
LINE419,0.384005,-0.841371,0.384005,3.347419,0.384005,1.253024
LINE420,3.942943,-0.841341,3.942943,3.347449,3.942943,1.253054
LINE421,0.000000,-0.339637,0.000000,3.673302,0.000000,1.281023
LINE422,0.632474,-0.841366,0.632474,3.347424,0.632474,1.253029
LINE423,0.000000,3.560330,0.000000,0.007598,0.000000,-1.570305
LINE424,1.117049,-0.841340,1.117049,3.347450,1.117049,1.253055
LINE425,0.000000,3.339306,0.000000,3.022794,0.000000,4.457848
LINE426,0.384005,-0.841371,0.384005,3.347419,0.384005,1.253024
LINE427,3.942943,-0.841341,3.942943,3.347449,3.942943,1.253054
LINE428,0.000000,-0.376657,0.000000,3.761582,0.000000,1.426397
LINE429,0.632474,-0.841366,0.632474,3.347424,0.632474,1.253029
LINE430,0.000000,3.502073,0.000000,0.033438,0.000000,-1.555313
LINE431,1.117049,-0.841340,1.117049,3.347450,1.117049,1.253055
LINE432,0.000000,-1.320625,0.000000,0.890198,0.000000,0.888772
LINE433,0.384005,-0.841371,0.384005,3.347419,0.384005,1.253024
LINE434,3.942943,-0.841341,3.942943,3.347449,3.942943,1.253054
LINE435,0.000000,-0.334356,0.000000,3.810468,0.000000,1.389758
LINE436,0.632474,-0.841366,0.632474,3.347424,0.632474,1.253029
LINE437,0.000000,3.362574,0.000000,-0.014224,0.000000,-1.550641
LINE438,1.117049,-0.841340,1.117049,3.347450,1.117049,1.253055
LINE439,0.000000,3.780383,0.000000,-0.699691,0.000000,-1.276635
LINE440,0.384005,-0.841371,0.384005,3.347419,0.384005,1.253024
LINE441,3.942943,-0.841341,3.942943,3.347449,3.942943,1.253054
LINE442,0.000000,-0.302176,0.000000,3.679025,0.000000,1.110792
LINE443,0.632474,-0.841366,0.632474,3.347424,0.632474,1.253029
LINE444,0.000000,3.603673,0.000000,-0.041230,0.000000,-1.541697
LINE445,1.117049,-0.841340,1.117049,3.347450,1.117049,1.253055
LINE446,0.000000,1.748717,0.000000,3.164595,0.000000,4.481607
LINE447,0.384005,-0.841371,0.384005,3.347419,0.384005,1.253024
LINE448,3.942943,-0.841341,3.942943,3.347449,3.942943,1.253054
LINE449,0.000000,-0.343704,0.000000,3.677984,0.000000,0.693050
LINE450,0.632474,-0.841366,0.632474,3.347424,0.632474,1.253029
LINE451,0.000000,3.677282,0.000000,0.002369,0.000000,-1.532937
LINE452,1.117049,-0.841340,1.117049,3.347450,1.117049,1.253055
LINE453,0.000000,2.939912,0.000000,2.939912,0.000000,-0.145406
LINE454,0.384005,-0.841371,0.384005,3.347419,0.384005,1.253024
LINE455,3.942943,-0.841341,3.942943,3.347449,3.942943,1.253054
LINE456,0.000000,-0.437642,0.000000,3.629030,0.000000,0.737698
LINE457,0.632474,-0.841366,0.632474,3.347424,0.632474,1.253029
LINE458,0.000000,3.239507,0.000000,0.063672,0.000000,-1.527551
LINE459,1.056808,-0.841339,1.056808,3.347451,1.056808,1.253056
LINE460,0.000000,0.899754,0.000000,3.597523,0.000000,-0.276113
LINE461,0.060241,-0.841353,0.060241,3.347438,0.060241,1.253043
LINE462,0.384005,-0.841371,0.384005,3.347419,0.384005,1.253024
LINE463,3.942943,-0.841341,3.942943,3.347449,3.942943,1.253054
LINE464,0.000000,-0.154994,0.000000,3.579593,0.000000,0.654528
LINE465,0.000000,3.132149,0.000000,0.046364,0.000000,-1.530521
LINE466,1.056808,-0.841339,1.056808,3.347451,1.056808,1.253056
LINE467,0.000000,-1.215272,0.000000,2.381693,0.000000,-0.394733
LINE468,0.000000,-1.115567,0.000000,3.292175,0.000000,2.378315
LINE469,0.060241,-0.841353,0.060241,3.347438,0.060241,1.253043
LINE470,0.384005,-0.841371,0.384005,3.347419,0.384005,1.253024
LINE471,3.942943,-0.841341,3.942943,3.347449,3.942943,1.253054
LINE472,0.000000,-0.202130,0.000000,3.692850,0.000000,1.165086
LINE473,0.000000,3.148000,0.000000,0.012575,0.000000,-1.533840
LINE474,1.056808,-0.841339,1.056808,3.347451,1.056808,1.253056
LINE475,0.000000,1.099364,0.000000,1.099364,0.000000,2.395432
LINE476,0.060241,-0.841353,0.060241,3.347438,0.060241,1.253043
LINE477,0.384005,-0.841371,0.384005,3.347419,0.384005,1.253024
LINE478,3.942943,-0.841341,3.942943,3.347449,3.942943,1.253054
LINE479,0.000000,-0.245205,0.000000,3.601412,0.000000,0.886553
LINE480,0.000000,2.806711,0.000000,-0.067058,0.000000,-1.520699
LINE481,0.936323,-0.841338,0.936323,3.347452,0.936323,1.253057
LINE482,0.000000,3.658943,0.000000,3.658943,0.000000,-1.238994
LINE483,0.120486,-0.841348,0.120486,3.347443,0.120486,1.253048
LINE484,0.060241,-0.841353,0.060241,3.347438,0.060241,1.253043
LINE485,0.384005,-0.841371,0.384005,3.347419,0.384005,1.253024
LINE486,3.942943,-0.841341,3.942943,3.347449,3.942943,1.253054
LINE487,0.000000,-0.189098,0.000000,3.730462,0.000000,1.198724
LINE488,0.000000,-0.521050,0.000000,-0.857166,0.000000,-1.470858
LINE489,0.936323,-0.841338,0.936323,3.347452,0.936323,1.253057
LINE490,0.000000,-0.171887,0.000000,-0.171887,0.000000,4.695087
LINE491,0.053967,-0.841348,0.053967,3.347443,0.053967,1.253047
LINE492,0.066518,-0.841347,0.066518,3.347443,0.066518,1.253048
LINE493,0.060241,-0.841353,0.060241,3.347438,0.060241,1.253043
LINE494,0.384005,-0.841371,0.384005,3.347419,0.384005,1.253024
LINE495,3.942943,-0.841341,3.942943,3.347449,3.942943,1.253054
LINE496,0.000000,-0.231752,0.000000,3.636138,0.000000,1.124891
LINE497,0.000000,4.604238,0.000000,-0.026034,0.000000,-1.553001
LINE498,0.936323,-0.841338,0.936323,3.347452,0.936323,1.253057
LINE499,0.000000,-1.533858,0.000000,0.820764,0.000000,2.521540
LINE500,0.053967,-0.841348,0.053967,3.347443,0.053967,1.253047
LINE501,0.066518,-0.841347,0.066518,3.347443,0.066518,1.253048
LINE502,0.060241,-0.841353,0.060241,3.347438,0.060241,1.253043
LINE503,0.384005,-0.841371,0.384005,3.347419,0.384005,1.253024
LINE504,3.942943,-0.841341,3.942943,3.347449,3.942943,1.253054
LINE505,0.000000,-0.160564,0.000000,3.634237,0.000000,0.958630
LINE506,0.000000,2.992017,0.000000,2.992017,0.000000,-0.075346
LINE507,0.936323,-0.841338,0.936323,3.347452,0.936323,1.253057
LINE508,0.000000,4.386353,0.000000,4.521926,0.000000,1.363784
LINE509,0.053967,-0.841348,0.053967,3.347443,0.053967,1.253047
LINE510,0.060241,-0.841353,0.060241,3.347438,0.060241,1.253043
LINE511,0.384005,-0.841371,0.384005,3.347419,0.384005,1.253024
LINE512,0.228417,-0.841369,0.228417,3.347421,0.228417,1.253026
LINE513,3.714526,-0.841339,3.714526,3.347451,3.714526,1.253056
LINE514,0.000000,-0.078303,0.000000,3.757492,0.000000,0.726454
LINE515,0.646393,-0.841337,0.646393,3.347453,0.646393,1.253058
LINE516,0.000000,0.911617,0.000000,-0.610433,0.000000,3.835442
LINE517,0.289930,-0.841340,0.289930,3.347450,0.289930,1.253055
LINE518,0.053967,-0.841348,0.053967,3.347443,0.053967,1.253047
LINE519,0.060241,-0.841353,0.060241,3.347438,0.060241,1.253043
LINE520,0.384005,-0.841371,0.384005,3.347419,0.384005,1.253024
LINE521,0.228417,-0.841369,0.228417,3.347421,0.228417,1.253026
LINE522,3.714526,-0.841339,3.714526,3.347451,3.714526,1.253056
LINE523,0.000000,-0.267637,0.000000,3.805614,0.000000,1.234453
LINE524,0.646393,-0.841337,0.646393,3.347453,0.646393,1.253058
LINE525,0.000000,1.702891,0.000000,-0.634994,0.000000,-1.508569
LINE526,0.289930,-0.841340,0.289930,3.347450,0.289930,1.253055
LINE527,0.053967,-0.841348,0.053967,3.347443,0.053967,1.253047
LINE528,0.060241,-0.841353,0.060241,3.347438,0.060241,1.253043
LINE529,0.384005,-0.841371,0.384005,3.347419,0.384005,1.253024
LINE530,3.714526,-0.841339,3.714526,3.347451,3.714526,1.253056
LINE531,0.000000,-0.310337,0.000000,4.117660,0.000000,1.500247
LINE532,0.646393,-0.841337,0.646393,3.347453,0.646393,1.253058
LINE533,0.000000,4.499937,0.000000,4.541486,0.000000,1.159412
LINE534,0.289930,-0.841340,0.289930,3.347450,0.289930,1.253055
LINE535,0.053967,-0.841348,0.053967,3.347443,0.053967,1.253047
LINE536,0.060241,-0.841353,0.060241,3.347438,0.060241,1.253043
LINE537,0.313730,-0.841371,0.313730,3.347419,0.313730,1.253024
LINE538,0.070275,-0.841374,0.070275,3.347416,0.070275,1.253021
LINE539,3.714526,-0.841339,3.714526,3.347451,3.714526,1.253056
LINE540,0.000000,-0.335374,0.000000,-1.316361,0.000000,1.403348
LINE541,0.646393,-0.841337,0.646393,3.347453,0.646393,1.253058
LINE542,0.000000,-0.490434,0.000000,3.754183,0.000000,1.796795
LINE543,0.289930,-0.841340,0.289930,3.347450,0.289930,1.253055
LINE544,0.053967,-0.841348,0.053967,3.347443,0.053967,1.253047
LINE545,0.060241,-0.841353,0.060241,3.347438,0.060241,1.253043
LINE546,0.313730,-0.841371,0.313730,3.347419,0.313730,1.253024
LINE547,3.714526,-0.841339,3.714526,3.347451,3.714526,1.253056
LINE548,0.000000,-0.572496,0.000000,4.078267,0.000000,1.440904
LINE549,0.646393,-0.841337,0.646393,3.347453,0.646393,1.253058
LINE550,0.000000,2.939912,0.000000,2.939912,0.000000,-0.145406
LINE551,0.069031,-0.841341,0.069031,3.347449,0.069031,1.253054
LINE552,0.220899,-0.841340,0.220899,3.347450,0.220899,1.253055
LINE553,0.053967,-0.841348,0.053967,3.347443,0.053967,1.253047
LINE554,0.060241,-0.841353,0.060241,3.347438,0.060241,1.253043
LINE555,0.313730,-0.841371,0.313730,3.347419,0.313730,1.253024
LINE556,3.714526,-0.841339,3.714526,3.347451,3.714526,1.253056
LINE557,0.000000,0.140514,0.000000,3.363837,0.000000,0.104613
LINE558,0.646393,-0.841337,0.646393,3.347453,0.646393,1.253058
LINE559,0.000000,1.552412,0.000000,1.552412,0.000000,-1.396514
LINE560,0.069031,-0.841341,0.069031,3.347449,0.069031,1.253054
LINE561,0.220899,-0.841340,0.220899,3.347450,0.220899,1.253055
LINE562,0.053967,-0.841348,0.053967,3.347443,0.053967,1.253047
LINE563,0.060241,-0.841353,0.060241,3.347438,0.060241,1.253043
LINE564,3.714526,-0.841339,3.714526,3.347451,3.714526,1.253056
LINE565,0.000000,3.102773,0.000000,0.625588,0.000000,-1.506236
LINE566,0.346416,-0.841338,0.346416,3.347453,0.346416,1.253058
LINE567,0.000000,4.566840,0.000000,4.610512,0.000000,1.307181
LINE568,0.299977,-0.841336,0.299977,3.347454,0.299977,1.253059
LINE569,0.069031,-0.841341,0.069031,3.347449,0.069031,1.253054
LINE570,0.060241,-0.841353,0.060241,3.347438,0.060241,1.253043
LINE571,3.714526,-0.841339,3.714526,3.347451,3.714526,1.253056
LINE572,0.346416,-0.841338,0.346416,3.347453,0.346416,1.253058
LINE573,0.000000,-1.262155,0.000000,-1.563599,0.000000,4.484616
LINE574,0.299977,-0.841336,0.299977,3.347454,0.299977,1.253059
LINE575,0.069031,-0.841341,0.069031,3.347449,0.069031,1.253054
LINE576,0.060241,-0.841353,0.060241,3.347438,0.060241,1.253043
LINE577,3.714526,-0.841339,3.714526,3.347451,3.714526,1.253056
LINE578,0.346416,-0.841338,0.346416,3.347453,0.346416,1.253058
LINE579,0.000000,1.480825,0.000000,4.528859,0.000000,1.390248
LINE580,0.000000,4.228647,0.000000,3.089902,0.000000,2.138611
LINE581,0.299977,-0.841336,0.299977,3.347454,0.299977,1.253059
LINE582,0.069031,-0.841341,0.069031,3.347449,0.069031,1.253054
LINE583,0.060241,-0.841353,0.060241,3.347438,0.060241,1.253043
LINE584,0.057732,-0.841370,0.057732,3.347420,0.057732,1.253025
LINE585,3.656793,-0.841339,3.656793,3.347452,3.656793,1.253056
LINE586,0.346416,-0.841338,0.346416,3.347453,0.346416,1.253058
LINE587,0.000000,4.311070,0.000000,-0.325462,0.000000,2.270510
LINE588,0.000000,4.150000,0.000000,3.151743,0.000000,2.142038
LINE589,0.299977,-0.841336,0.299977,3.347454,0.299977,1.253059
LINE590,0.069031,-0.841341,0.069031,3.347449,0.069031,1.253054
LINE591,0.060241,-0.841353,0.060241,3.347438,0.060241,1.253043
LINE592,0.057732,-0.841370,0.057732,3.347420,0.057732,1.253025
LINE593,3.656793,-0.841339,3.656793,3.347452,3.656793,1.253056
LINE594,0.060246,-0.841340,0.060246,3.347450,0.060246,1.253055
LINE595,0.286170,-0.841337,0.286170,3.347453,0.286170,1.253058
LINE596,0.000000,4.648620,0.000000,3.821881,0.000000,2.180349
LINE597,0.299977,-0.841336,0.299977,3.347454,0.299977,1.253059
LINE598,0.069031,-0.841341,0.069031,3.347449,0.069031,1.253054
LINE599,0.060241,-0.841353,0.060241,3.347438,0.060241,1.253043
LINE600,0.057732,-0.841370,0.057732,3.347420,0.057732,1.253025
LINE601,0.056478,-0.841369,0.056478,3.347421,0.056478,1.253026
LINE602,3.600315,-0.841338,3.600315,3.347452,3.600315,1.253057
LINE603,0.060246,-0.841340,0.060246,3.347450,0.060246,1.253055
LINE604,0.000000,0.741710,0.000000,4.094617,0.000000,4.699625
LINE605,0.000000,0.781339,0.000000,0.781339,0.000000,4.241194
LINE606,0.286170,-0.841337,0.286170,3.347453,0.286170,1.253058
LINE607,0.000000,2.992017,0.000000,2.992017,0.000000,-0.075346
LINE608,0.000000,-1.508559,0.000000,3.503032,0.000000,2.003545
LINE609,0.299977,-0.841336,0.299977,3.347454,0.299977,1.253059
LINE610,0.069031,-0.841341,0.069031,3.347449,0.069031,1.253054
LINE611,0.060241,-0.841353,0.060241,3.347438,0.060241,1.253043
LINE612,0.057732,-0.841370,0.057732,3.347420,0.057732,1.253025
LINE613,0.056478,-0.841369,0.056478,3.347421,0.056478,1.253026
LINE614,3.600315,-0.841338,3.600315,3.347452,3.600315,1.253057
LINE615,0.060246,-0.841340,0.060246,3.347450,0.060246,1.253055
LINE616,0.000000,-1.516043,0.000000,0.925502,0.000000,1.868211
LINE617,0.000000,-0.426857,0.000000,0.530943,0.000000,4.319454
LINE618,0.286170,-0.841337,0.286170,3.347453,0.286170,1.253058
LINE619,0.000000,-1.423667,0.000000,3.436947,0.000000,1.577241
LINE620,0.299977,-0.841336,0.299977,3.347454,0.299977,1.253059
LINE621,0.060241,-0.841353,0.060241,3.347438,0.060241,1.253043
LINE622,0.057732,-0.841370,0.057732,3.347420,0.057732,1.253025
LINE623,0.067776,-0.841367,0.067776,3.347423,0.067776,1.253028
LINE624,3.532539,-0.841338,3.532539,3.347453,3.532539,1.253058
LINE625,0.060246,-0.841340,0.060246,3.347450,0.060246,1.253055
LINE626,0.000000,4.217461,0.000000,4.019807,0.000000,1.858986
LINE627,0.299977,-0.841336,0.299977,3.347454,0.299977,1.253059
LINE628,0.060241,-0.841353,0.060241,3.347438,0.060241,1.253043
LINE629,0.057732,-0.841370,0.057732,3.347420,0.057732,1.253025
LINE630,0.067776,-0.841367,0.067776,3.347423,0.067776,1.253028
LINE631,3.532539,-0.841338,3.532539,3.347453,3.532539,1.253058
LINE632,0.060246,-0.841340,0.060246,3.347450,0.060246,1.253055
LINE633,0.000000,4.387589,0.000000,3.999907,0.000000,2.062665
LINE634,0.299977,-0.841336,0.299977,3.347454,0.299977,1.253059
LINE635,0.057732,-0.841370,0.057732,3.347420,0.057732,1.253025
LINE636,0.067776,-0.841367,0.067776,3.347423,0.067776,1.253028
LINE637,3.532539,-0.841338,3.532539,3.347453,3.532539,1.253058
LINE638,0.060246,-0.841340,0.060246,3.347450,0.060246,1.253055
LINE639,0.000000,4.290410,0.000000,4.290410,0.000000,2.422182
LINE640,0.299977,-0.841336,0.299977,3.347454,0.299977,1.253059
LINE641,0.057732,-0.841370,0.057732,3.347420,0.057732,1.253025
LINE642,0.067776,-0.841367,0.067776,3.347423,0.067776,1.253028
LINE643,3.532539,-0.841338,3.532539,3.347453,3.532539,1.253058
LINE644,0.000000,2.875759,0.000000,3.786408,0.000000,1.725085
LINE645,0.299977,-0.841336,0.299977,3.347454,0.299977,1.253059
LINE646,0.057732,-0.841370,0.057732,3.347420,0.057732,1.253025
LINE647,0.067776,-0.841367,0.067776,3.347423,0.067776,1.253028
LINE648,3.532539,-0.841338,3.532539,3.347453,3.532539,1.253058
LINE649,0.000000,2.531888,0.000000,-0.273489,0.000000,4.562795
LINE650,0.299977,-0.841336,0.299977,3.347454,0.299977,1.253059
LINE651,0.057732,-0.841370,0.057732,3.347420,0.057732,1.253025
LINE652,0.067776,-0.841367,0.067776,3.347423,0.067776,1.253028
LINE653,3.532539,-0.841338,3.532539,3.347453,3.532539,1.253058
LINE654,0.000000,2.163878,0.000000,-0.747661,0.000000,1.389990
LINE655,0.246006,-0.841336,0.246006,3.347454,0.246006,1.253059
LINE656,0.053970,-0.841337,0.053970,3.347453,0.053970,1.253058
LINE657,0.057732,-0.841370,0.057732,3.347420,0.057732,1.253025
LINE658,0.067776,-0.841367,0.067776,3.347423,0.067776,1.253028
LINE659,3.532539,-0.841338,3.532539,3.347453,3.532539,1.253058
LINE660,0.000000,2.048471,0.000000,1.609834,0.000000,2.089900
LINE661,0.246006,-0.841336,0.246006,3.347454,0.246006,1.253059
LINE662,0.053970,-0.841337,0.053970,3.347453,0.053970,1.253058
LINE663,0.057732,-0.841370,0.057732,3.347420,0.057732,1.253025
LINE664,0.067776,-0.841367,0.067776,3.347423,0.067776,1.253028
LINE665,3.532539,-0.841338,3.532539,3.347453,3.532539,1.253058
LINE666,0.000000,2.684004,0.000000,-0.127376,0.000000,1.018665
LINE667,0.246006,-0.841336,0.246006,3.347454,0.246006,1.253059
LINE668,0.053970,-0.841337,0.053970,3.347453,0.053970,1.253058
LINE669,0.057732,-0.841370,0.057732,3.347420,0.057732,1.253025
LINE670,0.067776,-0.841367,0.067776,3.347423,0.067776,1.253028
LINE671,1.184963,-0.841342,1.184963,3.347448,1.184963,1.253053
LINE672,2.347576,-0.841336,2.347576,3.347455,2.347576,1.253060
LINE673,0.000000,2.757055,0.000000,3.260146,0.000000,1.240591
LINE674,0.246006,-0.841336,0.246006,3.347454,0.246006,1.253059
LINE675,0.053970,-0.841337,0.053970,3.347453,0.053970,1.253058
LINE676,0.057732,-0.841370,0.057732,3.347420,0.057732,1.253025
LINE677,0.067776,-0.841367,0.067776,3.347423,0.067776,1.253028
LINE678,1.184963,-0.841342,1.184963,3.347448,1.184963,1.253053
LINE679,2.347576,-0.841336,2.347576,3.347455,2.347576,1.253060
LINE680,0.000000,1.311062,0.000000,-1.414563,0.000000,3.658444
LINE681,0.246006,-0.841336,0.246006,3.347454,0.246006,1.253059
LINE682,0.057732,-0.841370,0.057732,3.347420,0.057732,1.253025
LINE683,0.067776,-0.841367,0.067776,3.347423,0.067776,1.253028
LINE684,1.184963,-0.841342,1.184963,3.347448,1.184963,1.253053
LINE685,2.347576,-0.841336,2.347576,3.347455,2.347576,1.253060
LINE686,0.057732,-0.841370,0.057732,3.347420,0.057732,1.253025
LINE687,0.067776,-0.841367,0.067776,3.347423,0.067776,1.253028
LINE688,1.184963,-0.841342,1.184963,3.347448,1.184963,1.253053
LINE689,0.124261,-0.841365,0.124261,3.347426,0.124261,1.253031
LINE690,2.223314,-0.841334,2.223314,3.347456,2.223314,1.253061
LINE691,0.057732,-0.841370,0.057732,3.347420,0.057732,1.253025
LINE692,1.184963,-0.841342,1.184963,3.347448,1.184963,1.253053
LINE693,0.061503,-0.841365,0.061503,3.347426,0.061503,1.253031
LINE694,0.062758,-0.841365,0.062758,3.347426,0.062758,1.253031
LINE695,0.036401,-0.841364,0.036401,3.347426,0.036401,1.253031
LINE696,2.186914,-0.841333,2.186914,3.347457,2.186914,1.253062
LINE697,0.057732,-0.841370,0.057732,3.347420,0.057732,1.253025
LINE698,1.184963,-0.841342,1.184963,3.347448,1.184963,1.253053
LINE699,0.061503,-0.841365,0.061503,3.347426,0.061503,1.253031
LINE700,0.062758,-0.841365,0.062758,3.347426,0.062758,1.253031
LINE701,0.036401,-0.841364,0.036401,3.347426,0.036401,1.253031
LINE702,2.186914,-0.841333,2.186914,3.347457,2.186914,1.253062
LINE703,0.057732,-0.841370,0.057732,3.347420,0.057732,1.253025
LINE704,1.184963,-0.841342,1.184963,3.347448,1.184963,1.253053
LINE705,0.061503,-0.841365,0.061503,3.347426,0.061503,1.253031
LINE706,2.186914,-0.841333,2.186914,3.347457,2.186914,1.253062
LINE707,0.000000,0.986438,0.000000,0.162475,0.000000,-1.060103
LINE708,0.057732,-0.841370,0.057732,3.347420,0.057732,1.253025
LINE709,1.184963,-0.841342,1.184963,3.347448,1.184963,1.253053
LINE710,0.061503,-0.841365,0.061503,3.347426,0.061503,1.253031
LINE711,2.058878,-0.841332,2.058878,3.347458,2.058878,1.253063
LINE712,0.128036,-0.841356,0.128036,3.347434,0.128036,1.253039
LINE713,0.000000,1.121716,0.000000,0.291640,0.000000,-1.110693
LINE714,0.057732,-0.841370,0.057732,3.347420,0.057732,1.253025
LINE715,1.184963,-0.841342,1.184963,3.347448,1.184963,1.253053
LINE716,0.061503,-0.841365,0.061503,3.347426,0.061503,1.253031
LINE717,2.058878,-0.841332,2.058878,3.347458,2.058878,1.253063
LINE718,0.128036,-0.841356,0.128036,3.347434,0.128036,1.253039
LINE719,0.000000,1.099985,0.000000,0.406826,0.000000,-1.300708
LINE720,0.057732,-0.841370,0.057732,3.347420,0.057732,1.253025
LINE721,1.184963,-0.841342,1.184963,3.347448,1.184963,1.253053
LINE722,0.061503,-0.841365,0.061503,3.347426,0.061503,1.253031
LINE723,1.166288,-0.841332,1.166288,3.347459,1.166288,1.253064
LINE724,0.892590,-0.841333,0.892590,3.347458,0.892590,1.253063
LINE725,0.128036,-0.841356,0.128036,3.347434,0.128036,1.253039
LINE726,0.000000,1.470761,0.000000,0.285850,0.000000,-1.015997
LINE727,0.057732,-0.841370,0.057732,3.347420,0.057732,1.253025
LINE728,1.184963,-0.841342,1.184963,3.347448,1.184963,1.253053
LINE729,0.061503,-0.841365,0.061503,3.347426,0.061503,1.253031
LINE730,1.166288,-0.841332,1.166288,3.347459,1.166288,1.253064
LINE731,0.892590,-0.841333,0.892590,3.347458,0.892590,1.253063
LINE732,0.128036,-0.841356,0.128036,3.347434,0.128036,1.253039
LINE733,0.000000,1.302316,0.000000,0.345521,0.000000,-1.467984
LINE734,0.057732,-0.841370,0.057732,3.347420,0.057732,1.253025
LINE735,1.184963,-0.841342,1.184963,3.347448,1.184963,1.253053
LINE736,0.061503,-0.841365,0.061503,3.347426,0.061503,1.253031
LINE737,1.166288,-0.841332,1.166288,3.347459,1.166288,1.253064
LINE738,0.892590,-0.841333,0.892590,3.347458,0.892590,1.253063
LINE739,0.128036,-0.841356,0.128036,3.347434,0.128036,1.253039
LINE740,0.000000,1.179215,0.000000,0.444158,0.000000,4.647644
LINE741,0.057732,-0.841370,0.057732,3.347420,0.057732,1.253025
LINE742,1.184963,-0.841342,1.184963,3.347448,1.184963,1.253053
LINE743,0.061503,-0.841365,0.061503,3.347426,0.061503,1.253031
LINE744,1.166288,-0.841332,1.166288,3.347459,1.166288,1.253064
LINE745,0.824800,-0.841332,0.824800,3.347458,0.824800,1.253063
LINE746,0.067790,-0.841338,0.067790,3.347452,0.067790,1.253057
LINE747,0.128036,-0.841356,0.128036,3.347434,0.128036,1.253039
LINE748,0.000000,1.516160,0.000000,0.413652,0.000000,-1.460784
LINE749,0.057732,-0.841370,0.057732,3.347420,0.057732,1.253025
LINE750,1.184963,-0.841342,1.184963,3.347448,1.184963,1.253053
LINE751,0.061503,-0.841365,0.061503,3.347426,0.061503,1.253031
LINE752,0.266142,-0.841339,0.266142,3.347451,0.266142,1.253056
LINE753,0.900146,-0.841329,0.900146,3.347461,0.900146,1.253066
LINE754,0.824800,-0.841332,0.824800,3.347458,0.824800,1.253063
LINE755,0.067790,-0.841338,0.067790,3.347452,0.067790,1.253057
LINE756,0.128036,-0.841356,0.128036,3.347434,0.128036,1.253039
LINE757,0.000000,1.450588,0.000000,0.826794,0.000000,-1.461853
LINE758,0.057732,-0.841370,0.057732,3.347420,0.057732,1.253025
LINE759,1.184963,-0.841342,1.184963,3.347448,1.184963,1.253053
LINE760,0.061503,-0.841365,0.061503,3.347426,0.061503,1.253031
LINE761,0.266142,-0.841339,0.266142,3.347451,0.266142,1.253056
LINE762,0.900146,-0.841329,0.900146,3.347461,0.900146,1.253066
LINE763,0.067790,-0.841338,0.067790,3.347452,0.067790,1.253057
LINE764,0.128036,-0.841356,0.128036,3.347434,0.128036,1.253039
LINE765,0.000000,1.726661,0.000000,0.566954,0.000000,-1.435220
LINE766,0.057732,-0.841370,0.057732,3.347420,0.057732,1.253025
LINE767,1.184963,-0.841342,1.184963,3.347448,1.184963,1.253053
LINE768,0.061503,-0.841365,0.061503,3.347426,0.061503,1.253031
LINE769,0.266142,-0.841339,0.266142,3.347451,0.266142,1.253056
LINE770,0.510963,-0.841329,0.510963,3.347462,0.510963,1.253067
LINE771,0.389183,-0.841330,0.389183,3.347460,0.389183,1.253065
LINE772,0.067790,-0.841338,0.067790,3.347452,0.067790,1.253057
LINE773,0.128036,-0.841356,0.128036,3.347434,0.128036,1.253039
LINE774,0.000000,1.817032,0.000000,0.569845,0.000000,-1.222875
LINE775,0.057732,-0.841370,0.057732,3.347420,0.057732,1.253025
LINE776,1.184963,-0.841342,1.184963,3.347448,1.184963,1.253053
LINE777,0.061503,-0.841365,0.061503,3.347426,0.061503,1.253031
LINE778,0.266142,-0.841339,0.266142,3.347451,0.266142,1.253056
LINE779,0.510963,-0.841329,0.510963,3.347462,0.510963,1.253067
LINE780,0.389183,-0.841330,0.389183,3.347460,0.389183,1.253065
LINE781,0.067790,-0.841338,0.067790,3.347452,0.067790,1.253057
LINE782,0.128036,-0.841356,0.128036,3.347434,0.128036,1.253039
LINE783,0.000000,1.698833,0.000000,0.957388,0.000000,4.603083
LINE784,0.057732,-0.841370,0.057732,3.347420,0.057732,1.253025
LINE785,1.184963,-0.841342,1.184963,3.347448,1.184963,1.253053
LINE786,0.266142,-0.841339,0.266142,3.347451,0.266142,1.253056
LINE787,0.389183,-0.841330,0.389183,3.347460,0.389183,1.253065
LINE788,0.067790,-0.841338,0.067790,3.347452,0.067790,1.253057
LINE789,0.128036,-0.841356,0.128036,3.347434,0.128036,1.253039
LINE790,0.000000,1.221765,0.000000,0.102679,0.000000,0.580673
LINE791,0.749391,-0.841341,0.749391,3.347449,0.749391,1.253054
LINE792,0.435572,-0.841343,0.435572,3.347447,0.435572,1.253052
LINE793,0.266142,-0.841339,0.266142,3.347451,0.266142,1.253056
LINE794,0.389183,-0.841330,0.389183,3.347460,0.389183,1.253065
LINE795,0.067790,-0.841338,0.067790,3.347452,0.067790,1.253057
LINE796,0.128036,-0.841356,0.128036,3.347434,0.128036,1.253039
LINE797,0.000000,2.331116,0.000000,-0.312521,0.000000,1.311695
LINE798,0.749391,-0.841341,0.749391,3.347449,0.749391,1.253054
LINE799,0.435572,-0.841343,0.435572,3.347447,0.435572,1.253052
LINE800,0.144369,-0.841339,0.144369,3.347451,0.144369,1.253056
LINE801,0.121773,-0.841339,0.121773,3.347451,0.121773,1.253056
LINE802,0.389183,-0.841330,0.389183,3.347460,0.389183,1.253065
LINE803,0.067790,-0.841338,0.067790,3.347452,0.067790,1.253057
LINE804,0.128036,-0.841356,0.128036,3.347434,0.128036,1.253039
LINE805,0.000000,4.121137,0.000000,1.949525,0.000000,4.014261
LINE806,0.749391,-0.841341,0.749391,3.347449,0.749391,1.253054
LINE807,0.435572,-0.841343,0.435572,3.347447,0.435572,1.253052
LINE808,0.144369,-0.841339,0.144369,3.347451,0.144369,1.253056
LINE809,0.121773,-0.841339,0.121773,3.347451,0.121773,1.253056
LINE810,0.000000,2.046751,0.000000,-0.305055,0.000000,3.976404
LINE811,0.389183,-0.841330,0.389183,3.347460,0.389183,1.253065
LINE812,0.067790,-0.841338,0.067790,3.347452,0.067790,1.253057
LINE813,0.128036,-0.841356,0.128036,3.347434,0.128036,1.253039
LINE814,0.000000,4.500303,0.000000,2.464184,0.000000,-1.237616
LINE815,0.749391,-0.841341,0.749391,3.347449,0.749391,1.253054
LINE816,0.435572,-0.841343,0.435572,3.347447,0.435572,1.253052
LINE817,0.144369,-0.841339,0.144369,3.347451,0.144369,1.253056
LINE818,0.121773,-0.841339,0.121773,3.347451,0.121773,1.253056
LINE819,0.000000,0.636550,0.000000,4.667567,0.000000,4.581772
LINE820,0.389183,-0.841330,0.389183,3.347460,0.389183,1.253065
LINE821,0.128036,-0.841356,0.128036,3.347434,0.128036,1.253039
LINE822,0.000000,4.552386,0.000000,2.809372,0.000000,4.237425
LINE823,0.749391,-0.841341,0.749391,3.347449,0.749391,1.253054
LINE824,0.144369,-0.841339,0.144369,3.347451,0.144369,1.253056
LINE825,0.121773,-0.841339,0.121773,3.347451,0.121773,1.253056
LINE826,0.000000,3.228893,0.000000,2.084225,0.000000,1.808700
LINE827,0.389183,-0.841330,0.389183,3.347460,0.389183,1.253065
LINE828,0.128036,-0.841356,0.128036,3.347434,0.128036,1.253039
LINE829,0.000000,3.755898,0.000000,2.677695,0.000000,1.526334
LINE830,0.749391,-0.841341,0.749391,3.347449,0.749391,1.253054
LINE831,0.144369,-0.841339,0.144369,3.347451,0.144369,1.253056
LINE832,0.121773,-0.841339,0.121773,3.347451,0.121773,1.253056
LINE833,0.000000,-0.314256,0.000000,4.027633,0.000000,1.275051
LINE834,0.389183,-0.841330,0.389183,3.347460,0.389183,1.253065
LINE835,0.128036,-0.841356,0.128036,3.347434,0.128036,1.253039
LINE836,0.749391,-0.841341,0.749391,3.347449,0.749391,1.253054
LINE837,0.144369,-0.841339,0.144369,3.347451,0.144369,1.253056
LINE838,0.121773,-0.841339,0.121773,3.347451,0.121773,1.253056
LINE839,0.000000,-0.248864,0.000000,3.027803,0.000000,4.406765
LINE840,0.128036,-0.841356,0.128036,3.347434,0.128036,1.253039
LINE841,0.749391,-0.841341,0.749391,3.347449,0.749391,1.253054
LINE842,0.144369,-0.841339,0.144369,3.347451,0.144369,1.253056
LINE843,0.121773,-0.841339,0.121773,3.347451,0.121773,1.253056
LINE844,0.000000,3.494771,0.000000,-0.018964,0.000000,2.120453
LINE845,0.000000,-1.548442,0.000000,4.643251,0.000000,4.537699
LINE846,0.128036,-0.841356,0.128036,3.347434,0.128036,1.253039
LINE847,0.749391,-0.841341,0.749391,3.347449,0.749391,1.253054
LINE848,0.144369,-0.841339,0.144369,3.347451,0.144369,1.253056
LINE849,0.121773,-0.841339,0.121773,3.347451,0.121773,1.253056
LINE850,0.000000,3.493815,0.000000,0.005684,0.000000,2.394221
LINE851,0.000000,2.939912,0.000000,2.939912,0.000000,-0.145406
LINE852,0.128036,-0.841356,0.128036,3.347434,0.128036,1.253039
LINE853,0.749391,-0.841341,0.749391,3.347449,0.749391,1.253054
LINE854,0.144369,-0.841339,0.144369,3.347451,0.144369,1.253056
LINE855,0.121773,-0.841339,0.121773,3.347451,0.121773,1.253056
LINE856,0.000000,3.546763,0.000000,0.096945,0.000000,2.488791
LINE857,0.000000,-0.817851,0.000000,2.137420,0.000000,4.368826
LINE858,0.128036,-0.841356,0.128036,3.347434,0.128036,1.253039
LINE859,0.066528,-0.841346,0.066528,3.347444,0.066528,1.253049
LINE860,0.682864,-0.841340,0.682864,3.347450,0.682864,1.253055
LINE861,0.144369,-0.841339,0.144369,3.347451,0.144369,1.253056
LINE862,0.121773,-0.841339,0.121773,3.347451,0.121773,1.253056
LINE863,0.000000,3.730684,0.000000,-0.243018,0.000000,2.690728
LINE864,0.000000,2.425148,0.000000,2.425148,0.000000,4.313907
LINE865,0.128036,-0.841356,0.128036,3.347434,0.128036,1.253039
LINE866,0.144369,-0.841339,0.144369,3.347451,0.144369,1.253056
LINE867,0.121773,-0.841339,0.121773,3.347451,0.121773,1.253056
LINE868,0.000000,3.654111,0.000000,-0.466791,0.000000,2.701282
LINE869,0.000000,-0.069385,0.000000,-0.069385,0.000000,-0.020831
LINE870,0.128036,-0.841356,0.128036,3.347434,0.128036,1.253039
LINE871,0.144369,-0.841339,0.144369,3.347451,0.144369,1.253056
LINE872,0.062769,-0.841339,0.062769,3.347451,0.062769,1.253056
LINE873,0.059003,-0.841339,0.059003,3.347451,0.059003,1.253056
LINE874,0.000000,3.990025,0.000000,-0.435922,0.000000,1.498211
LINE875,0.000000,1.595131,0.000000,3.444354,0.000000,4.634495
LINE876,0.128036,-0.841356,0.128036,3.347434,0.128036,1.253039
LINE877,0.144369,-0.841339,0.144369,3.347451,0.144369,1.253056
LINE878,0.062769,-0.841339,0.062769,3.347451,0.062769,1.253056
LINE879,0.059003,-0.841339,0.059003,3.347451,0.059003,1.253056
LINE880,0.000000,-0.201681,0.000000,-0.201681,0.000000,2.996186
LINE881,0.000000,1.089527,0.000000,4.653912,0.000000,2.149799
LINE882,0.128036,-0.841356,0.128036,3.347434,0.128036,1.253039
LINE883,0.144369,-0.841339,0.144369,3.347451,0.144369,1.253056
LINE884,0.062769,-0.841339,0.062769,3.347451,0.062769,1.253056
LINE885,0.059003,-0.841339,0.059003,3.347451,0.059003,1.253056
LINE886,0.128036,-0.841356,0.128036,3.347434,0.128036,1.253039
LINE887,0.075323,-0.841339,0.075323,3.347451,0.075323,1.253056
LINE888,0.069046,-0.841340,0.069046,3.347451,0.069046,1.253056
LINE889,0.062769,-0.841339,0.062769,3.347451,0.062769,1.253056
LINE890,0.128036,-0.841356,0.128036,3.347434,0.128036,1.253039
LINE891,0.075323,-0.841339,0.075323,3.347451,0.075323,1.253056
LINE892,0.069046,-0.841340,0.069046,3.347451,0.069046,1.253056
LINE893,0.062769,-0.841339,0.062769,3.347451,0.062769,1.253056
LINE894,0.067784,-0.841356,0.067784,3.347434,0.067784,1.253039
LINE895,0.060252,-0.841357,0.060252,3.347434,0.060252,1.253039
LINE896,0.075323,-0.841339,0.075323,3.347451,0.075323,1.253056
LINE897,0.069046,-0.841340,0.069046,3.347451,0.069046,1.253056
LINE898,0.062769,-0.841339,0.062769,3.347451,0.062769,1.253056
LINE899,0.067784,-0.841356,0.067784,3.347434,0.067784,1.253039
LINE900,0.075323,-0.841339,0.075323,3.347451,0.075323,1.253056
LINE901,0.075323,-0.841339,0.075323,3.347451,0.075323,1.253056
LINE902,0.075323,-0.841339,0.075323,3.347451,0.075323,1.253056
LINE903,0.075323,-0.841339,0.075323,3.347451,0.075323,1.253056
LINE904,0.075323,-0.841339,0.075323,3.347451,0.075323,1.253056
LINE905,0.075323,-0.841339,0.075323,3.347451,0.075323,1.253056
